Version 4
SHEET 1 880 680
WIRE 336 -32 80 -32
WIRE 496 -32 336 -32
WIRE 80 0 80 -32
WIRE 496 16 496 -32
WIRE 336 48 336 -32
WIRE 80 96 80 64
WIRE 272 96 80 96
WIRE 496 128 496 96
WIRE 80 144 80 96
WIRE 336 192 336 144
WIRE 80 272 80 224
WIRE 336 288 336 272
WIRE 496 288 336 288
WIRE -320 320 -416 320
WIRE -208 320 -320 320
WIRE -128 320 -208 320
WIRE 16 320 -48 320
WIRE -416 336 -416 320
WIRE 336 336 336 288
WIRE -208 352 -208 320
WIRE -416 448 -416 416
WIRE -208 448 -208 432
WIRE -208 448 -416 448
WIRE 80 448 80 368
WIRE 80 448 -208 448
WIRE 336 448 336 416
WIRE 336 448 80 448
WIRE 80 480 80 448
FLAG 496 128 0
FLAG 80 480 0
FLAG 496 288 Vo
FLAG -320 320 Vi
SYMBOL res 64 128 R0
SYMATTR InstName R1
SYMATTR Value 10k
SYMBOL res 320 176 R0
SYMATTR InstName R2
SYMATTR Value 10k
SYMBOL res 320 320 R0
SYMATTR InstName R3
SYMATTR Value 4.7k
SYMBOL npn 16 272 R0
SYMATTR InstName Q1
SYMATTR Value BC817-40
SYMBOL pnp 272 144 M180
SYMATTR InstName Q2
SYMATTR Value BC807-40
SYMBOL res -224 336 R0
SYMATTR InstName R4
SYMATTR Value 330k
SYMBOL res -32 304 R90
WINDOW 0 0 56 VBottom 2
WINDOW 3 32 56 VTop 2
SYMATTR InstName R5
SYMATTR Value 100k
SYMBOL diode 64 0 R0
SYMATTR InstName D1
SYMATTR Value 1N4148
SYMBOL voltage 496 0 R0
SYMATTR InstName V1
SYMATTR Value 9V
SYMBOL Misc\\signal -416 320 R0
WINDOW 3 -161 157 Left 2
WINDOW 123 0 0 Left 0
WINDOW 39 0 0 Left 0
SYMATTR Value PULSE(0 3.3 0 10n 10n 0.5 1)
SYMATTR InstName V2
TEXT -256 128 Left 2 !.tran 0 10 5
